-- Deck generated from ORIGINAL.DATA by coarsening using pycopm (https://github.com/cssr-tools/pycopm).
----------------------------------------------------------------------------
RUNSPEC
----------------------------------------------------------------------------
WELLDIMS
14 217 1 14 /
START
1 JAN 2025 /
METRIC
DIMENS
181 317 5 /
TABDIMS
/
EQLDIMS
/
CO2STORE
GAS
WATER
DISGASW
UNIFOUT
----------------------------------------------------------------------------
GRID
----------------------------------------------------------------------------
INIT