-- Copyright (C) 2025 NORCE Research AS
----------------------------------------------------------------------------
RUNSPEC
----------------------------------------------------------------------------
DIMENS 
1 1 1 /
TABDIMS
/
CO2STORE
GAS
WATER
DISGASW
METRIC
START
1 'JAN' 2025 /
WELLDIMS
3 3 3 3 /
UNIFOUT
----------------------------------------------------------------------------
GRID
----------------------------------------------------------------------------
INIT
PERMX
1000 /
COPY 
PERMX PERMY /
PERMX PERMZ /
/
PORO
0.2 /
TOPS
0 /
DX
100000 /
DY
160000 /
DZ
1 /
----------------------------------------------------------------------------
PROPS
----------------------------------------------------------------------------
SGWFN
0 0 1 0
1 1 0 0 /
SALINITY
2.92 /
ROCK
276.0 0.000195 /
REGIONS
----------------------------------------------------------------------------
SOLUTION
---------------------------------------------------------------------------
EQUIL
0 300.0 0 0 0 0 1 1 0 /
RTEMPVD
0 105
1 105 /
RPTRST 
'BASIC=2' DEN /
----------------------------------------------------------------------------
SUMMARY
----------------------------------------------------------------------------
FPR
FGMIP
FGMIR
FGMIT
FGMDS
----------------------------------------------------------------------------
SCHEDULE
----------------------------------------------------------------------------
RPTRST
'BASIC=2' DEN /
TSTEP
1 /