-- This reservoir simulation deck is made available under the Open Database
-- License: http://opendatacommons.org/licenses/odbl/1.0/. Any rights in
-- individual contents of the database are licensed under the Database Contents
-- License: http://opendatacommons.org/licenses/dbcl/1.0/
-- Copyright (C) 2025 NORCE Research AS
----------------------------------------------------------------------------
RUNSPEC
----------------------------------------------------------------------------
DIMENS
6 1 4 /
WELLDIMS
2 4 1 1 /
EQLDIMS
/
TABDIMS
/
GAS
WATER
CO2STORE
EQLDIMS
/
TABDIMS
/
UNIFOUT
----------------------------------------------------------------------------
GRID
----------------------------------------------------------------------------
INIT
COORD
0 0 0 0 0 1E2
1E2 0 0 1E2 0 1E2
2E2 0 0 2E2 0 1E2
3E2 0 0 3E2 0 1E2
4E2 0 0 4E2 0 1E2
5E2 0 0 5E2 0 1E2
6E2 0 0 6E2 0 1E2
0 1E2 0 0 1E2 1E2
1E2 1E2 0 1E2 1E2 1E2
2E2 1E2 0 2E2 1E2 1E2
3E2 1E2 0 3E2 1E2 1E2
4E2 1E2 0 4E2 1E2 1E2
5E2 1E2 0 5E2 1E2 1E2
6E2 1E2 0 6E2 1E2 1E2 /
ZCORN
3 3 0 0 1 1 -.75 -.75 1 1 1.5 1.5 3 3 0 0 1 1 -.75 -.75 1 1 1.5 1.5
3 3 1 1 1 1 0.25 0.25 1 1 1.5 1.5 3 3 1 1 1 1 0.25 0.25 1 1 1.5 1.5
3 3 1 1 1 1 0.25 0.25 1 1 1.5 1.5 3 3 1 1 1 1 0.25 0.25 1 1 1.5 1.5
3 3 2 2 2 2 1.25 1.25 2 2 1.5 1.5 3 3 2 2 2 2 1.25 1.25 2 2 1.5 1.5
3 3 2 2 2 2 2.75 2.75 2 2 1.5 1.5 3 3 2 2 2 2 2.75 2.75 2 2 1.5 1.5
3 3 3 3 3 3 3.75 3.75 3 3 2.5 2.5 3 3 3 3 3 3 3.75 3.75 3 3 2.5 2.5
3 3 3 3 3 3 3.75 3.75 3 3 2.5 2.5 3 3 3 3 3 3 3.75 3.75 3 3 2.5 2.5
4 4 4 4 3 3 4.75 4.75 3 3 2.5 2.5 4 4 4 4 3 3 4.75 4.75 3 3 2.5 2.5 /
PORO
24*0.2 /
PERMX
24*10 /
COPY
PERMX PERMY /
PERMX PERMZ /
/
MULTIPLY
PERMZ 0.01 /
/
----------------------------------------------------------------------------
PROPS
----------------------------------------------------------------------------
ROCK
276.0 1.95e-4 /
SGWFN
0 0 1 0
1 1 0 0 /
-------------------------------------------------------------------------
SOLUTION
----------------------------------------------------------------------------
RPTRST
BASIC=2/
EQUIL
0 200 0 0 0 0 1 1 0 /
----------------------------------------------------------------------------
SCHEDULE
----------------------------------------------------------------------------
RPTRST
BASIC=2/
WELSPECS
W1 G1 1 1 1* WAT /
/
COMPDAT
W1 1 1 4 4 OPEN 2* 0.2 /
/
WCONINJE
W1 WAT OPEN RATE 5E0 1* 480 /
/
TSTEP
100 /
